<?xml version="1.0" encoding="UTF-8"?>

<!-- generated on 2023-06-06 13:23:40 by Eclipse SUMO netedit Version 1.14.1
<configuration xmlns:xsi="http://www.w3.org/2001/XMLSchema-instance" xsi:noNamespaceSchemaLocation="http://sumo.dlr.de/xsd/netconvertConfiguration.xsd">

    <input>
        <sumo-net-file value="E:\Lenovo\Desktop\2\sumofiles\net.net.xml"/>
    </input>

    <output>
        <output-file value="E:\Lenovo\Desktop\2\sumofiles\net.net.xml"/>
    </output>

    <processing>
        <geometry.min-radius.fix.railways value="false"/>
        <geometry.max-grade.fix value="false"/>
        <offset.disable-normalization value="true"/>
        <lefthand value="false"/>
    </processing>

    <junctions>
        <no-turnarounds value="true"/>
        <junctions.corner-detail value="0"/>
        <junctions.limit-turn-speed value="-1"/>
        <rectangular-lane-cut value="false"/>
    </junctions>

    <pedestrian>
        <walkingareas value="false"/>
    </pedestrian>

    <netedit>
        <additional-files value="E:\Lenovo\Desktop\2\sumofiles\add.xml"/>
    </netedit>

</configuration>
-->

<net version="1.9" xmlns:xsi="http://www.w3.org/2001/XMLSchema-instance" xsi:noNamespaceSchemaLocation="http://sumo.dlr.de/xsd/net_file.xsd">

    <location netOffset="500.00,500.00" convBoundary="0.00,0.00,1000.00,1000.00" origBoundary="-500.00,-500.00,500.00,500.00" projParameter="!"/>

    <edge id=":0_0" function="internal">
        <lane id=":0_0_0" index="0" speed="11.11" length="9.03" shape="492.00,513.60 491.65,511.15 490.60,509.40 488.85,508.35 486.40,508.00"/>
    </edge>
    <edge id=":0_1" function="internal">
        <lane id=":0_1_0" index="0" speed="11.11" length="27.20" shape="495.20,513.60 495.20,486.40"/>
    </edge>
    <edge id=":0_2" function="internal">
        <lane id=":0_2_0" index="0" speed="11.11" length="24.51" shape="498.40,513.60 499.35,506.95 502.20,502.20 506.95,499.35 513.60,498.40"/>
    </edge>
    <edge id=":0_3" function="internal">
        <lane id=":0_3_0" index="0" speed="11.11" length="9.03" shape="513.60,508.00 511.15,508.35 509.40,509.40 508.35,511.15 508.00,513.60"/>
    </edge>
    <edge id=":0_4" function="internal">
        <lane id=":0_4_0" index="0" speed="11.11" length="27.20" shape="513.60,504.80 486.40,504.80"/>
    </edge>
    <edge id=":0_5" function="internal">
        <lane id=":0_5_0" index="0" speed="11.11" length="24.51" shape="513.60,501.60 506.95,500.65 502.20,497.80 499.35,493.05 498.40,486.40"/>
    </edge>
    <edge id=":0_6" function="internal">
        <lane id=":0_6_0" index="0" speed="11.11" length="9.03" shape="508.00,486.40 508.35,488.85 509.40,490.60 511.15,491.65 513.60,492.00"/>
    </edge>
    <edge id=":0_7" function="internal">
        <lane id=":0_7_0" index="0" speed="11.11" length="27.20" shape="504.80,486.40 504.80,513.60"/>
    </edge>
    <edge id=":0_8" function="internal">
        <lane id=":0_8_0" index="0" speed="11.11" length="24.51" shape="501.60,486.40 500.65,493.05 497.80,497.80 493.05,500.65 486.40,501.60"/>
    </edge>
    <edge id=":0_9" function="internal">
        <lane id=":0_9_0" index="0" speed="11.11" length="9.03" shape="486.40,492.00 488.85,491.65 490.60,490.60 491.65,488.85 492.00,486.40"/>
    </edge>
    <edge id=":0_10" function="internal">
        <lane id=":0_10_0" index="0" speed="11.11" length="27.20" shape="486.40,495.20 513.60,495.20"/>
    </edge>
    <edge id=":0_11" function="internal">
        <lane id=":0_11_0" index="0" speed="11.11" length="24.51" shape="486.40,498.40 493.05,499.35 497.80,502.20 500.65,506.95 501.60,513.60"/>
    </edge>

    <edge id="e_in" from="2" to="0" priority="74">
        <lane id="e_in_0" index="0" speed="11.11" length="486.40" shape="1000.00,508.00 513.60,508.00"/>
        <lane id="e_in_1" index="1" speed="11.11" length="486.40" shape="1000.00,504.80 513.60,504.80"/>
        <lane id="e_in_2" index="2" speed="11.11" length="486.40" shape="1000.00,501.60 513.60,501.60"/>
    </edge>
    <edge id="e_out" from="0" to="2" priority="46">
        <lane id="e_out_0" index="0" speed="11.11" length="486.40" shape="513.60,492.00 1000.00,492.00"/>
        <lane id="e_out_1" index="1" speed="11.11" length="486.40" shape="513.60,495.20 1000.00,495.20"/>
        <lane id="e_out_2" index="2" speed="11.11" length="486.40" shape="513.60,498.40 1000.00,498.40"/>
    </edge>
    <edge id="n_in" from="4" to="0" priority="74">
        <lane id="n_in_0" index="0" speed="11.11" length="486.40" shape="492.00,1000.00 492.00,513.60"/>
        <lane id="n_in_1" index="1" speed="11.11" length="486.40" shape="495.20,1000.00 495.20,513.60"/>
        <lane id="n_in_2" index="2" speed="11.11" length="486.40" shape="498.40,1000.00 498.40,513.60"/>
    </edge>
    <edge id="n_out" from="0" to="4" priority="46">
        <lane id="n_out_0" index="0" speed="11.11" length="486.40" shape="508.00,513.60 508.00,1000.00"/>
        <lane id="n_out_1" index="1" speed="11.11" length="486.40" shape="504.80,513.60 504.80,1000.00"/>
        <lane id="n_out_2" index="2" speed="11.11" length="486.40" shape="501.60,513.60 501.60,1000.00"/>
    </edge>
    <edge id="s_in" from="3" to="0" priority="74">
        <lane id="s_in_0" index="0" speed="11.11" length="486.40" shape="508.00,0.00 508.00,486.40"/>
        <lane id="s_in_1" index="1" speed="11.11" length="486.40" shape="504.80,0.00 504.80,486.40"/>
        <lane id="s_in_2" index="2" speed="11.11" length="486.40" shape="501.60,0.00 501.60,486.40"/>
    </edge>
    <edge id="s_out" from="0" to="3" priority="46">
        <lane id="s_out_0" index="0" speed="11.11" length="486.40" shape="492.00,486.40 492.00,0.00"/>
        <lane id="s_out_1" index="1" speed="11.11" length="486.40" shape="495.20,486.40 495.20,0.00"/>
        <lane id="s_out_2" index="2" speed="11.11" length="486.40" shape="498.40,486.40 498.40,0.00"/>
    </edge>
    <edge id="w_in" from="1" to="0" priority="74" length="486.40">
        <lane id="w_in_0" index="0" speed="11.11" length="486.40" shape="0.00,492.00 486.40,492.00"/>
        <lane id="w_in_1" index="1" speed="11.11" length="486.40" shape="0.00,495.20 486.40,495.20"/>
        <lane id="w_in_2" index="2" speed="11.11" length="486.40" shape="0.00,498.40 486.40,498.40"/>
    </edge>
    <edge id="w_out" from="0" to="1" priority="46">
        <lane id="w_out_0" index="0" speed="11.11" length="486.40" shape="486.40,508.00 0.00,508.00"/>
        <lane id="w_out_1" index="1" speed="11.11" length="486.40" shape="486.40,504.80 0.00,504.80"/>
        <lane id="w_out_2" index="2" speed="11.11" length="486.40" shape="486.40,501.60 0.00,501.60"/>
    </edge>

    <tlLogic id="0" type="static" programID="0" offset="0">
        <phase duration="36" state="GGrGrrGGrGrrr"/>
        <phase duration="6"  state="GyrGrrGyrGrrr"/>
        <phase duration="3"  state="GrrGrrGrrGrrr"/>
        <phase duration="36" state="GrGGrrGrGGrrr"/>
        <phase duration="6"  state="GryGrrGryGrrr"/>
        <phase duration="3"  state="GrrGrrGrrGrrr"/>
        <phase duration="36" state="GrrGGrGrrGGrr"/>
        <phase duration="6"  state="GrrGyyGrrGyyr"/>
        <phase duration="3"  state="GrrGrrGrrGrrr"/>
        <phase duration="36" state="GrrGrGGrrGrGr"/>
        <phase duration="6"  state="GrrGryGrrGryr"/>
        <phase duration="3"  state="GrrGrrGrrGrrr"/>
    </tlLogic>

    <junction id="0" type="traffic_light" x="500.00" y="500.00" incLanes="n_in_0 n_in_1 n_in_2 e_in_0 e_in_1 e_in_2 s_in_0 s_in_1 s_in_2 w_in_0 w_in_1 w_in_2" intLanes=":0_0_0 :0_1_0 :0_2_0 :0_3_0 :0_4_0 :0_5_0 :0_6_0 :0_7_0 :0_8_0 :0_9_0 :0_10_0 :0_11_0" shape="490.40,513.60 509.60,513.60 513.60,509.60 513.60,490.40 509.60,486.40 490.40,486.40 486.40,490.40 486.40,509.60">
        <request index="0"  response="000000000000" foes="000000000000" cont="0"/>
        <request index="1"  response="000000000000" foes="110100010000" cont="0"/>
        <request index="2"  response="000010000000" foes="100010110000" cont="0"/>
        <request index="3"  response="000000000000" foes="000000000000" cont="0"/>
        <request index="4"  response="000010000110" foes="100010000110" cont="0"/>
        <request index="5"  response="010110000100" foes="010110000100" cont="0"/>
        <request index="6"  response="000000000000" foes="000000000000" cont="0"/>
        <request index="7"  response="000000000000" foes="010000110100" cont="0"/>
        <request index="8"  response="000000000010" foes="110000100010" cont="0"/>
        <request index="9"  response="000000000000" foes="000000000000" cont="0"/>
        <request index="10" response="000110000010" foes="000110100010" cont="0"/>
        <request index="11" response="000100010110" foes="000100010110" cont="0"/>
    </junction>
    <junction id="1" type="dead_end" x="0.00" y="500.00" incLanes="w_out_0 w_out_1 w_out_2" intLanes="" shape="0.00,500.00 0.00,509.60 0.00,500.00"/>
    <junction id="2" type="dead_end" x="1000.00" y="500.00" incLanes="e_out_0 e_out_1 e_out_2" intLanes="" shape="1000.00,500.00 1000.00,490.40 1000.00,500.00"/>
    <junction id="3" type="dead_end" x="500.00" y="0.00" incLanes="s_out_0 s_out_1 s_out_2" intLanes="" shape="500.00,0.00 490.40,0.00 500.00,0.00"/>
    <junction id="4" type="dead_end" x="500.00" y="1000.00" incLanes="n_out_0 n_out_1 n_out_2" intLanes="" shape="500.00,1000.00 509.60,1000.00 500.00,1000.00"/>

    <connection from="e_in" to="n_out" fromLane="0" toLane="0" via=":0_3_0" tl="0" linkIndex="3" dir="r" state="O"/>
    <connection from="e_in" to="w_out" fromLane="1" toLane="1" via=":0_4_0" tl="0" linkIndex="4" dir="s" state="o"/>
    <connection from="e_in" to="s_out" fromLane="2" toLane="2" via=":0_5_0" tl="0" linkIndex="5" dir="l" state="o"/>
    <connection from="n_in" to="w_out" fromLane="0" toLane="0" via=":0_0_0" tl="0" linkIndex="0" dir="r" state="O"/>
    <connection from="n_in" to="s_out" fromLane="1" toLane="1" via=":0_1_0" tl="0" linkIndex="1" dir="s" state="O"/>
    <connection from="n_in" to="e_out" fromLane="2" toLane="2" via=":0_2_0" tl="0" linkIndex="2" dir="l" state="o"/>
    <connection from="s_in" to="e_out" fromLane="0" toLane="0" via=":0_6_0" tl="0" linkIndex="6" dir="r" state="O"/>
    <connection from="s_in" to="n_out" fromLane="1" toLane="1" via=":0_7_0" tl="0" linkIndex="7" dir="s" state="O"/>
    <connection from="s_in" to="w_out" fromLane="2" toLane="2" via=":0_8_0" tl="0" linkIndex="8" dir="l" state="o"/>
    <connection from="w_in" to="s_out" fromLane="0" toLane="0" via=":0_9_0" tl="0" linkIndex="9" dir="r" state="O"/>
    <connection from="w_in" to="e_out" fromLane="1" toLane="1" via=":0_10_0" tl="0" linkIndex="10" dir="s" state="o"/>
    <connection from="w_in" to="n_out" fromLane="2" toLane="2" via=":0_11_0" tl="0" linkIndex="11" dir="l" state="o"/>

    <connection from=":0_0" to="w_out" fromLane="0" toLane="0" dir="r" state="M"/>
    <connection from=":0_1" to="s_out" fromLane="0" toLane="1" dir="s" state="M"/>
    <connection from=":0_2" to="e_out" fromLane="0" toLane="2" dir="l" state="M"/>
    <connection from=":0_3" to="n_out" fromLane="0" toLane="0" dir="r" state="M"/>
    <connection from=":0_4" to="w_out" fromLane="0" toLane="1" dir="s" state="M"/>
    <connection from=":0_5" to="s_out" fromLane="0" toLane="2" dir="l" state="M"/>
    <connection from=":0_6" to="e_out" fromLane="0" toLane="0" dir="r" state="M"/>
    <connection from=":0_7" to="n_out" fromLane="0" toLane="1" dir="s" state="M"/>
    <connection from=":0_8" to="w_out" fromLane="0" toLane="2" dir="l" state="M"/>
    <connection from=":0_9" to="s_out" fromLane="0" toLane="0" dir="r" state="M"/>
    <connection from=":0_10" to="e_out" fromLane="0" toLane="1" dir="s" state="M"/>
    <connection from=":0_11" to="n_out" fromLane="0" toLane="2" dir="l" state="M"/>

</net>
